Circuit: * C:\Users\berto\NotSync\GitHub\Laboratorio_3\circuito_1_lab_1.asc


Date: Tue Oct 19 08:51:50 2021
Total elapsed time: 0.156 seconds.

tnom = 27
temp = 27
method = trap
totiter = 2410
traniter = 0
tranpoints = 0
accept = 0
rejected = 0
matrix size = 4
fillins = 0
solver = Normal
Matrix Compiler1: 100 bytes object code size  0.1/0.0/[0.0]
Matrix Compiler2: 248 bytes object code size  0.0/0.1/[0.0]

