Circuit: * Z:\home\fabio\Laboratorio_3\circuito_2_lab_1.asc

.OP point found by inspection.

Date: Mon Oct 18 23:21:00 2021
Total elapsed time: 0.064 seconds.

tnom = 27
temp = 27
method = modified trap
totiter = 2391
traniter = 2391
tranpoints = 1081
accept = 1053
rejected = 28
matrix size = 5
fillins = 0
solver = Normal
Matrix Compiler1: 150 bytes object code size  0.2/0.1/[0.1]
Matrix Compiler2: 321 bytes object code size  0.1/0.2/[0.1]

