Circuit: * Z:\home\fabio\Laboratorio_3\Draft1.asc

Limiting fall time of source v1 to 1.94289e-017
.OP point found by inspection.

Date: Mon Oct 18 22:38:40 2021
Total elapsed time: 0.048 seconds.

tnom = 27
temp = 27
method = modified trap
totiter = 2168
traniter = 2168
tranpoints = 1080
accept = 1074
rejected = 6
matrix size = 4
fillins = 0
solver = Normal
Matrix Compiler1: 100 bytes object code size  0.2/0.2/[0.1]
Matrix Compiler2: 248 bytes object code size  0.2/0.2/[0.1]

