Circuit: * Z:\home\fabio\Laboratorio_3\Draft2.asc

Limiting fall time of source v1 to 1.94289e-017
.OP point found by inspection.

Date: Mon Oct 18 23:18:59 2021
Total elapsed time: 0.047 seconds.

tnom = 27
temp = 27
method = trap
totiter = 200
traniter = 0
tranpoints = 0
accept = 0
rejected = 0
matrix size = 5
fillins = 0
solver = Normal
Matrix Compiler1: 150 bytes object code size  0.1/0.1/[0.1]
Matrix Compiler2: 321 bytes object code size  0.1/0.1/[0.1]

