Circuit: * Z:\home\fabio\Laboratorio_3\Draft3.asc

Direct Newton iteration for .op point succeeded.

Date: Mon Oct 18 23:41:51 2021
Total elapsed time: 0.047 seconds.

tnom = 27
temp = 27
method = modified trap
totiter = 2342
traniter = 2330
tranpoints = 1091
accept = 1058
rejected = 33
matrix size = 10
fillins = 0
solver = Normal
Matrix Compiler1: 346 bytes object code size  0.2/0.1/[0.1]
Matrix Compiler2: 640 bytes object code size  0.1/0.2/[0.1]

