Circuit: * Z:\home\fabio\Laboratorio_3\Esperienza_03\LTspice\circuito_1_1.asc

Direct Newton iteration for .op point succeeded.

Date: Sat Nov 20 18:59:13 2021
Total elapsed time: 0.053 seconds.

tnom = 27
temp = 27
method = modified trap
totiter = 2817
traniter = 2814
tranpoints = 1408
accept = 1344
rejected = 64
matrix size = 25
fillins = 16
solver = Normal
Matrix Compiler1: 1.55 KB object code size  0.4/0.3/[0.1]
Matrix Compiler2: 2.24 KB object code size  0.3/0.3/[0.2]

