Circuit: * C:\Users\berto\NotSync\GitHub\Laboratorio_3\Diodo\circuito_2_lab_1.asc

V1: Missing value, assumed 0V @ DC
.OP point found by inspection.

Date: Mon Oct 25 09:50:58 2021
Total elapsed time: 0.101 seconds.

tnom = 27
temp = 27
method = trap
totiter = 2000
traniter = 0
tranpoints = 0
accept = 0
rejected = 0
matrix size = 4
fillins = 0
solver = Normal
Matrix Compiler1: 100 bytes object code size  0.1/0.1/[0.0]
Matrix Compiler2: 248 bytes object code size  0.1/0.1/[0.0]

