Circuit: * C:\Users\berto\NotSync\GitHub\Laboratorio_3\Esperienza_03\Circuiti\Circ_3.asc

Direct Newton iteration for .op point succeeded.
.step x=3300
.step x=150000

Date: Wed Nov 24 12:36:33 2021
Total elapsed time: 0.154 seconds.

tnom = 27
temp = 27
method = modified trap
totiter = 2335
traniter = 2332
tranpoints = 1167
accept = 1139
rejected = 28
matrix size = 15
fillins = 6
solver = Normal
Matrix Compiler1: 960 bytes object code size  0.6/0.5/[0.3]
Matrix Compiler2: 1.42 KB object code size  0.4/0.6/[0.4]

