Circuit: * C:\Users\berto\NotSync\GitHub\Laboratorio_3\Esperienza_03\Circuiti\Circ_3.asc

Direct Newton iteration for .op point succeeded.
.step x=3000
.step x=10000
.step x=20000
.step x=50000
.step x=100000
.step x=150000

Date: Thu Dec 02 22:14:47 2021
Total elapsed time: 0.265 seconds.

tnom = 27
temp = 27
method = modified trap
totiter = 2219
traniter = 2216
tranpoints = 1109
accept = 1100
rejected = 9
matrix size = 15
fillins = 6
solver = Normal
Matrix Compiler1: 960 bytes object code size  0.2/0.1/[0.1]
Matrix Compiler2: 1.42 KB object code size  0.1/0.2/[0.1]

