Circuit: * C:\Users\berto\NotSync\GitHub\Laboratorio_3\Esperienza_03\Circuiti\Circ_1.asc

Direct Newton iteration for .op point succeeded.

Date: Tue Nov 23 12:27:06 2021
Total elapsed time: 0.038 seconds.

tnom = 27
temp = 27
method = trap
totiter = 3
traniter = 0
tranpoints = 0
accept = 0
rejected = 0
matrix size = 10
fillins = 2
solver = Normal
Matrix Compiler1:      26 opcodes
Matrix Compiler2: 836 bytes object code size
