Circuit: * C:\Users\berto\NotSync\GitHub\Laboratorio_3\Esperienza_03\Circuiti\Circ_6.asc

Direct Newton iteration failed to find .op point.  (Use ".option noopiter" to skip.)
Starting Gmin stepping
Gmin = 10
Gmin = 1.07374
Gmin = 0.115292
Gmin = 0.0123794
Gmin = 0.00132923
Gmin = 0.000142725
Gmin = 1.5325e-005
Gmin = 1.6455e-006
Gmin = 1.76685e-007
Gmin = 1.89714e-008
Gmin = 2.03704e-009
Gmin = 2.18725e-010
Gmin = 2.34854e-011
Gmin = 2.52173e-012
Gmin = 2.70769e-013
Gmin = 0
Gmin stepping succeeded in finding the operating point.


Date: Thu Dec 02 23:13:22 2021
Total elapsed time: 0.362 seconds.

tnom = 27
temp = 27
method = modified trap
totiter = 2644
traniter = 2276
tranpoints = 1139
accept = 1128
rejected = 11
matrix size = 27
fillins = 17
solver = Normal
Matrix Compiler1: 2.17 KB object code size  0.8/0.6/[0.2]
Matrix Compiler2: 3.09 KB object code size  0.8/0.7/[0.5]

