Circuit: * Z:\home\fabio\Laboratorio_3\Esperienza_03\Circuiti\Circ_6.asc

Direct Newton iteration for .op point succeeded.

Date: Fri Dec 17 17:49:36 2021
Total elapsed time: 0.029 seconds.

tnom = 27
temp = 27
method = trap
totiter = 3
traniter = 0
tranpoints = 0
accept = 0
rejected = 0
matrix size = 102
fillins = 97
solver = Normal
Matrix Compiler1:     426 opcodes
Matrix Compiler2: 10.93 KB object code size
