Circuit: * C:\Users\berto\NotSync\GitHub\Laboratorio_3\Esperienza_03\Circuiti\Circ_3.asc

Direct Newton iteration for .op point succeeded.

Date: Mon Nov 22 22:35:33 2021
Total elapsed time: 0.063 seconds.

tnom = 27
temp = 27
method = modified trap
totiter = 2239
traniter = 2236
tranpoints = 1119
accept = 1109
rejected = 10
matrix size = 15
fillins = 6
solver = Normal
Matrix Compiler1: 960 bytes object code size  0.2/0.1/[0.1]
Matrix Compiler2: 1.42 KB object code size  0.1/0.2/[0.1]

