Circuit: * Z:\home\fabio\Laboratorio_3\Esperienza_03\Circuiti\Circ_3.asc

Direct Newton iteration for .op point succeeded.

Date: Tue Dec 14 22:10:38 2021
Total elapsed time: 0.112 seconds.

tnom = 27
temp = 27
method = modified trap
totiter = 2583
traniter = 2580
tranpoints = 1291
accept = 1213
rejected = 78
matrix size = 45
fillins = 39
solver = Normal
Thread vector: 6.8/4.7[3] 1.9/2.0[1] 1.5/2.0[1] 0.3/56.1[1]  2592/500
Matrix Compiler1: 3.30 KB object code size  1.0/0.6/[0.3]
Matrix Compiler2: 4.45 KB object code size  0.6/0.8/[0.3]

