Circuit: * C:\Users\berto\NotSync\GitHub\Laboratorio_3\Esperienza_03\Circuiti\Circ_1.asc

Direct Newton iteration for .op point succeeded.

Date: Sat Nov 27 17:25:10 2021
Total elapsed time: 0.055 seconds.

tnom = 27
temp = 27
method = modified trap
totiter = 2349
traniter = 2346
tranpoints = 1174
accept = 1149
rejected = 25
matrix size = 10
fillins = 2
solver = Normal
Matrix Compiler1: 490 bytes object code size  0.2/0.1/[0.1]
Matrix Compiler2: 818 bytes object code size  0.1/0.2/[0.1]

