Circuit: * \\wsl.localhost\Ubuntu-20.04\home\fabiocufino\Laboratorio_3\Esperienza_03\Circuiti\Circ_3.asc

Direct Newton iteration for .op point succeeded.

Date: Tue Nov 23 09:58:12 2021
Total elapsed time: 0.079 seconds.

tnom = 27
temp = 27
method = modified trap
totiter = 2232
traniter = 2228
tranpoints = 1115
accept = 1105
rejected = 10
matrix size = 13
fillins = 1
solver = Normal
Matrix Compiler1: 694 bytes object code size  0.2/0.1/[0.1]
Matrix Compiler2: 1.17 KB object code size  0.2/0.2/[0.1]

