Circuit: * C:\Users\berto\NotSync\GitHub\Laboratorio_3\Esperienza_03\Circuiti\Circ_5.asc

Direct Newton iteration for .op point succeeded.
.step x=500
.step x=1000
.step x=1500
.step x=2000
.step x=2500
.step x=3000
.step x=3500
.step x=4000
.step x=4500
.step x=5000
.step x=5500
.step x=6000
.step x=6500
.step x=7000
.step x=7500
.step x=8000
.step x=8500
.step x=9000
.step x=9500
.step x=10000

Date: Wed Nov 24 13:36:06 2021
Total elapsed time: 0.395 seconds.

tnom = 27
temp = 27
method = trap
totiter = 3
traniter = 0
tranpoints = 0
accept = 0
rejected = 0
matrix size = 19
fillins = 11
solver = Normal
Matrix Compiler1:      81 opcodes
Matrix Compiler2: 2.05 KB object code size
