Circuit: * C:\Users\berto\NotSync\GitHub\Laboratorio_3\Esperienza_03\Circuiti\Circ_5.asc

Direct Newton iteration for .op point succeeded.

Date: Thu Dec 02 22:27:08 2021
Total elapsed time: 0.073 seconds.

tnom = 27
temp = 27
method = modified trap
totiter = 2279
traniter = 2276
tranpoints = 1139
accept = 1128
rejected = 11
matrix size = 19
fillins = 11
solver = Normal
Matrix Compiler1: 1.40 KB object code size  0.5/0.3/[0.2]
Matrix Compiler2: 2.04 KB object code size  0.3/0.4/[0.2]

