Circuit: * Z:\home\fabio\Laboratorio_3\Esperienza_03\Circuiti\Circ_6.asc

<<<<<<< Updated upstream
Direct Newton iteration for .op point succeeded.

Date: Fri Dec 17 17:49:36 2021
Total elapsed time: 0.029 seconds.
=======
WARNING: Less than two connections to node TEST.  This node is used by VTEST.
Direct Newton iteration failed to find .op point.  (Use ".option noopiter" to skip.)
Starting Gmin stepping
Gmin = 10
Gmin = 1.07374
Gmin = 0.115292
Gmin = 0.0123794
Gmin = 0.00132923
Gmin = 0.000142725
Gmin = 1.5325e-005
Gmin = 1.6455e-006
Gmin = 1.76685e-007
Gmin = 1.89714e-008
Gmin = 2.03704e-009
Gmin = 2.18725e-010
Gmin = 2.34854e-011
Gmin = 2.52173e-012
Gmin = 2.70769e-013
Gmin = 0
Gmin stepping succeeded in finding the operating point.


Date: Tue Dec 14 23:33:12 2021
Total elapsed time: 0.053 seconds.
>>>>>>> Stashed changes

tnom = 27
temp = 27
method = trap
<<<<<<< Updated upstream
totiter = 3
=======
totiter = 368
>>>>>>> Stashed changes
traniter = 0
tranpoints = 0
accept = 0
rejected = 0
<<<<<<< Updated upstream
matrix size = 102
fillins = 97
solver = Normal
Matrix Compiler1:     426 opcodes
Matrix Compiler2: 10.93 KB object code size
=======
matrix size = 35
fillins = 20
solver = Normal
Matrix Compiler1:     150 opcodes
Matrix Compiler2: off  [0.3]/0.5/0.5

>>>>>>> Stashed changes
