<<<<<<< HEAD
Circuit: * Z:\home\fabio\Laboratorio_3\Esperienza_03\Circuiti\Circ_2.asc
=======
Circuit: * C:\Users\berto\NotSync\GitHub\Laboratorio_3\Esperienza_03\Circuiti\Circ_2.asc
>>>>>>> main

WARNING: Specified period is not longer than the sum of Trise, Tfall, and Ton for vpre_ideal.  Increasing period to 0.01
WARNING: Node N006 is floating.

WARNING: Less than two connections to node N006.  This node is used by C4.
Direct Newton iteration for .op point succeeded.

<<<<<<< HEAD
Date: Thu Dec 02 23:08:43 2021
Total elapsed time: 0.045 seconds.
=======
Date: Tue Nov 30 22:35:11 2021
Total elapsed time: 0.098 seconds.
>>>>>>> main

tnom = 27
temp = 27
method = modified trap
<<<<<<< HEAD
totiter = 2294
traniter = 2291
tranpoints = 1144
accept = 1110
rejected = 34
matrix size = 28
fillins = 18
solver = Normal
Matrix Compiler1: 1.83 KB object code size  0.5/0.3/[0.2]
Matrix Compiler2: 2.53 KB object code size  0.4/0.4/[0.2]
=======
totiter = 2163
traniter = 2160
tranpoints = 1076
accept = 1073
rejected = 3
matrix size = 11
fillins = 3
solver = Normal
Matrix Compiler1: 504 bytes object code size  0.2/0.1/[0.1]
Matrix Compiler2: 897 bytes object code size  0.1/0.2/[0.1]
>>>>>>> main

