Circuit: * Z:\home\fabio\Laboratorio_3\Esperienza_03\Circuiti\Circ_2.asc

WARNING: Specified period is not longer than the sum of Trise, Tfall, and Ton for vpre_ideal.  Increasing period to 0.01
Direct Newton iteration for .op point succeeded.

Date: Fri Dec 03 21:33:55 2021
Total elapsed time: 0.052 seconds.

tnom = 27
temp = 27
method = modified trap
totiter = 2294
traniter = 2291
tranpoints = 1144
accept = 1110
rejected = 34
matrix size = 27
fillins = 18
solver = Normal
Matrix Compiler1: 1.78 KB object code size  0.8/0.6/[0.2]
Matrix Compiler2: 2.46 KB object code size  0.5/1.3/[0.3]

