Circuit: * Z:\home\fabio\Laboratorio_3\Esperienza_03\Circuiti\Circ_6.asc

Direct Newton iteration for .op point succeeded.

Date: Fri Dec 17 20:33:33 2021
Total elapsed time: 0.049 seconds.

tnom = 27
temp = 27
method = trap
totiter = 3
traniter = 0
tranpoints = 0
accept = 0
rejected = 0
matrix size = 102
fillins = 99
solver = Normal
Matrix Compiler1:     431 opcodes
Matrix Compiler2: 10.96 KB object code size
