Circuit: * Z:\home\fabio\Laboratorio_3\Esperienza_03\Circuiti\Circ_2.asc

WARNING: Specified period is not longer than the sum of Trise, Tfall, and Ton for vpre_ideal.  Increasing period to 0.01
Direct Newton iteration for .op point succeeded.

Date: Sat Dec 04 17:48:18 2021
Total elapsed time: 0.018 seconds.

tnom = 27
temp = 27
method = trap
totiter = 3
traniter = 0
tranpoints = 0
accept = 0
rejected = 0
matrix size = 26
fillins = 16
solver = Normal
Matrix Compiler1:      87 opcodes
Matrix Compiler2: 2.40 KB object code size
