Circuit: * C:\Users\berto\NotSync\GitHub\Laboratorio_3\Esperienza_03\Circuiti\Circ_1.asc

Direct Newton iteration for .op point succeeded.

Date: Sat Nov 20 22:13:22 2021
Total elapsed time: 0.095 seconds.

tnom = 27
temp = 27
method = modified trap
totiter = 2219
traniter = 2216
tranpoints = 1109
accept = 1101
rejected = 8
matrix size = 10
fillins = 2
solver = Normal
Matrix Compiler1: 490 bytes object code size  0.1/0.1/[0.1]
Matrix Compiler2: off  [0.1]/0.2/0.1

