Circuit: * C:\Users\berto\NotSync\GitHub\Laboratorio_3\Esperienza_03\Circuiti\Circ_2.asc

Direct Newton iteration for .op point succeeded.

Date: Sun Nov 21 11:02:45 2021
Total elapsed time: 0.123 seconds.

tnom = 27
temp = 27
method = modified trap
totiter = 2259
traniter = 2256
tranpoints = 1118
accept = 1104
rejected = 14
matrix size = 11
fillins = 1
solver = Normal
Matrix Compiler1: 468 bytes object code size  0.2/0.1/[0.1]
Matrix Compiler2: 863 bytes object code size  0.2/0.2/[0.1]

