Circuit: * C:\Users\berto\NotSync\GitHub\Laboratorio_3\Esperienza_03\Circuiti\Circ_2.asc

WARNING: Specified period is not longer than the sum of Trise, Tfall, and Ton for vpre_ideal.  Increasing period to 0.01
Direct Newton iteration for .op point succeeded.

Date: Tue Nov 30 22:35:11 2021
Total elapsed time: 0.098 seconds.

tnom = 27
temp = 27
method = modified trap
totiter = 2163
traniter = 2160
tranpoints = 1076
accept = 1073
rejected = 3
matrix size = 11
fillins = 3
solver = Normal
Matrix Compiler1: 504 bytes object code size  0.2/0.1/[0.1]
Matrix Compiler2: 897 bytes object code size  0.1/0.2/[0.1]

