Circuit: * Z:\home\fabio\Laboratorio_3\Esperienza_03\Circuiti\Circ_2.asc

WARNING: Specified period is not longer than the sum of Trise, Tfall, and Ton for vpre_ideal.  Increasing period to 0.01
WARNING: Node N006 is floating.

WARNING: Less than two connections to node N006.  This node is used by C4.
Direct Newton iteration for .op point succeeded.

Date: Thu Dec 02 23:08:43 2021
Total elapsed time: 0.045 seconds.

tnom = 27
temp = 27
method = modified trap
totiter = 2294
traniter = 2291
tranpoints = 1144
accept = 1110
rejected = 34
matrix size = 28
fillins = 18
solver = Normal
Matrix Compiler1: 1.83 KB object code size  0.5/0.3/[0.2]
Matrix Compiler2: 2.53 KB object code size  0.4/0.4/[0.2]

