Circuit: * \\wsl.localhost\Ubuntu-20.04\home\fabiocufino\Laboratorio_3\Esperienza_03\Circuiti\Draft1.asc

.OP point found by inspection.

<<<<<<< HEAD
Date: Thu Dec 16 09:42:12 2021
Total elapsed time: 0.119 seconds.
=======
Date: Sat Dec 11 12:16:25 2021
Total elapsed time: 0.347 seconds.
>>>>>>> main

tnom = 27
temp = 27
method = modified trap
<<<<<<< HEAD
totiter = 2093
traniter = 2093
=======
totiter = 2123
traniter = 2123
>>>>>>> main
tranpoints = 1042
accept = 1042
rejected = 0
matrix size = 3
fillins = 0
solver = Normal
<<<<<<< HEAD
Matrix Compiler1: 86 bytes object code size  0.0/0.0/[0.0]
Matrix Compiler2: 163 bytes object code size  0.0/0.0/[0.0]
=======
Matrix Compiler1:       5 opcodes  0.1/[0.1]/0.1
Matrix Compiler2: off  [0.1]/0.1/0.2
>>>>>>> main

