Circuit: * C:\Users\berto\NotSync\GitHub\Laboratorio_3\Esperienza_03\Circuiti\Draft1.asc

.OP point found by inspection.

Date: Thu Dec 16 09:42:12 2021
Total elapsed time: 0.119 seconds.

tnom = 27
temp = 27
method = modified trap
totiter = 2093
traniter = 2093
tranpoints = 1042
accept = 1042
rejected = 0
matrix size = 3
fillins = 0
solver = Normal
Matrix Compiler1: 86 bytes object code size  0.0/0.0/[0.0]
Matrix Compiler2: 163 bytes object code size  0.0/0.0/[0.0]

