Circuit: * \\wsl.localhost\Ubuntu-20.04\home\fabiocufino\Laboratorio_3\Esperienza_03\Circuiti\Draft3.asc

Direct Newton iteration for .op point succeeded.

Date: Sat Dec 11 12:46:30 2021
Total elapsed time: 0.092 seconds.

tnom = 27
temp = 27
method = modified trap
totiter = 2110
traniter = 2106
tranpoints = 1042
accept = 1042
rejected = 0
matrix size = 7
fillins = 0
solver = Normal
Matrix Compiler1: 178 bytes object code size  0.1/0.0/[0.0]
Matrix Compiler2: 427 bytes object code size  0.1/0.1/[0.1]

