Circuit: * \\wsl.localhost\Ubuntu-20.04\home\fabiocufino\Laboratorio_3\Esperienza_03\Circuiti\Draft1.asc

.OP point found by inspection.

Date: Sat Dec 11 12:16:25 2021
Total elapsed time: 0.347 seconds.

tnom = 27
temp = 27
method = modified trap
totiter = 2123
traniter = 2123
tranpoints = 1042
accept = 1042
rejected = 0
matrix size = 3
fillins = 0
solver = Normal
Matrix Compiler1:       5 opcodes  0.1/[0.1]/0.1
Matrix Compiler2: off  [0.1]/0.1/0.2

