Circuit: * C:\Users\berto\NotSync\GitHub\Laboratorio_3\Esperienza_03\Circuiti\Draft2.asc

Direct Newton iteration for .op point succeeded.

Date: Wed Dec 15 09:52:00 2021
Total elapsed time: 0.123 seconds.

tnom = 27
temp = 27
method = modified trap
totiter = 2105
traniter = 2096
tranpoints = 1042
accept = 1042
rejected = 0
matrix size = 8
fillins = 1
solver = Normal
Matrix Compiler1: 246 bytes object code size  0.1/0.1/[0.0]
Matrix Compiler2: 526 bytes object code size  0.1/0.1/[0.1]

