Circuit: * C:\Users\berto\NotSync\GitHub\Laboratorio_3\Esperienza_02\Circuiti\Circuito3_ac_time.asc

Direct Newton iteration for .op point succeeded.

Date: Wed Nov 03 22:36:52 2021
Total elapsed time: 0.108 seconds.

tnom = 27
temp = 27
method = modified trap
totiter = 5680
traniter = 5676
tranpoints = 2839
accept = 1938
rejected = 901
matrix size = 13
fillins = 1
solver = Normal
Matrix Compiler1: 532 bytes object code size  0.2/0.1/[0.1]
Matrix Compiler2: 1001 bytes object code size  0.2/0.2/[0.1]

