Circuit: * C:\Users\berto\NotSync\GitHub\Laboratorio_3\Esperienza_02\Circuiti\Circuito4.asc

R50b: both pins shorted together -- ignoring.

Date: Wed Oct 27 10:07:55 2021
Total elapsed time: 0.068 seconds.

tnom = 27
temp = 27
method = trap
totiter = 2013
traniter = 0
tranpoints = 0
accept = 0
rejected = 0
matrix size = 11
fillins = 1
solver = Normal
Matrix Compiler1: 468 bytes object code size  0.2/0.1/[0.1]
Matrix Compiler2: 929 bytes object code size  0.1/0.2/[0.1]

