Circuit: * C:\Users\berto\NotSync\GitHub\Laboratorio_3\Esperienza_02\Circuiti\Circuito1_ac_time.asc

Direct Newton iteration for .op point succeeded.

Date: Tue Oct 26 09:27:06 2021
Total elapsed time: 0.097 seconds.

tnom = 27
temp = 27
method = modified trap
totiter = 2753
traniter = 2749
tranpoints = 1227
accept = 1154
rejected = 73
matrix size = 10
fillins = 1
solver = Normal
Matrix Compiler1: 454 bytes object code size  0.2/0.1/[0.1]
Matrix Compiler2: 790 bytes object code size  0.2/0.2/[0.1]

