Circuit: * C:\Users\berto\NotSync\GitHub\Laboratorio_3\Esperienza_02\Circuiti\Circuito4.asc

Direct Newton iteration for .op point succeeded.

Date: Wed Oct 27 12:10:51 2021
Total elapsed time: 0.059 seconds.

tnom = 27
temp = 27
method = modified trap
totiter = 2086
traniter = 2082
tranpoints = 1042
accept = 1042
rejected = 0
matrix size = 12
fillins = 1
solver = Normal
Matrix Compiler1: 554 bytes object code size  0.1/0.1/[0.1]
Matrix Compiler2: 990 bytes object code size  0.1/0.1/[0.1]

