Circuit: * C:\Users\berto\NotSync\GitHub\Laboratorio_3\Esperienza_02\Circuiti\Circuito4_diff.asc

Direct Newton iteration for .op point succeeded.

Date: Wed Oct 27 12:36:43 2021
Total elapsed time: 0.180 seconds.

tnom = 27
temp = 27
method = modified trap
totiter = 14467
traniter = 14461
tranpoints = 6957
accept = 5247
rejected = 1710
matrix size = 14
fillins = 1
solver = Normal
Matrix Compiler1: 618 bytes object code size  0.1/0.1/[0.1]
Matrix Compiler2: off  [0.1]/0.2/0.3

