Circuit: * \\wsl.localhost\Ubuntu-20.04\home\fabiocufino\Laboratorio_3\Esperienza_02\Circuiti\Circuito4_diff.asc

Direct Newton iteration for .op point succeeded.

Date: Sat Nov 06 16:03:34 2021
Total elapsed time: 0.124 seconds.

tnom = 27
temp = 27
method = modified trap
totiter = 2588
traniter = 2581
tranpoints = 1272
accept = 1230
rejected = 42
matrix size = 14
fillins = 1
solver = Normal
Matrix Compiler1: 618 bytes object code size  0.3/0.1/[0.1]
Matrix Compiler2: off  [0.2]/0.3/0.2

