Circuit: * C:\Users\berto\NotSync\GitHub\Laboratorio_3\Esperienza_02\Circuiti\Circuito4_diff.asc

Direct Newton iteration for .op point succeeded.

Date: Fri Nov 05 09:11:32 2021
Total elapsed time: 0.091 seconds.

tnom = 27
temp = 27
method = modified trap
totiter = 2683
traniter = 2676
tranpoints = 1311
accept = 1265
rejected = 46
matrix size = 14
fillins = 1
solver = Normal
Matrix Compiler1: 618 bytes object code size  0.2/0.1/[0.1]
Matrix Compiler2: 1.09 KB object code size  0.1/0.1/[0.1]

