Circuit: * C:\Users\berto\NotSync\GitHub\Laboratorio_3\Esperienza_02\Circuiti\Circuito5.asc

Direct Newton iteration for .op point succeeded.

Date: Tue Nov 02 18:48:44 2021
Total elapsed time: 0.107 seconds.

tnom = 27
temp = 27
method = modified trap
totiter = 2345
traniter = 2325
tranpoints = 1100
accept = 1076
rejected = 24
matrix size = 15
fillins = 8
solver = Normal
Matrix Compiler1: 1.14 KB object code size  0.3/0.2/[0.1]
Matrix Compiler2: 1.52 KB object code size  0.2/0.2/[0.2]

