Circuit: * Z:\home\fabio\Laboratorio_3\Esperienza_02\Circuiti\Circuito4_diff.asc

Direct Newton iteration for .op point succeeded.

<<<<<<< Updated upstream
Date: Tue Nov 09 10:17:16 2021
Total elapsed time: 0.036 seconds.
=======
Date: Mon Nov 08 14:06:22 2021
Total elapsed time: 0.108 seconds.
>>>>>>> Stashed changes

tnom = 27
temp = 27
method = modified trap
<<<<<<< Updated upstream
totiter = 1491
traniter = 1488
tranpoints = 739
accept = 607
rejected = 132
matrix size = 30
fillins = 17
solver = Normal
Matrix Compiler1: 1.82 KB object code size  0.5/0.3/[0.1]
Matrix Compiler2: 2.67 KB object code size  0.3/0.4/[0.2]
=======
totiter = 3678
traniter = 3671
tranpoints = 1793
accept = 1677
rejected = 116
matrix size = 14
fillins = 1
solver = Normal
Matrix Compiler1: 618 bytes object code size  0.2/0.1/[0.1]
Matrix Compiler2: 1.09 KB object code size  0.1/0.2/[0.1]
>>>>>>> Stashed changes

