Circuit: * C:\Users\berto\NotSync\GitHub\Laboratorio_3\Esperienza_02\Circuiti\Circuito2.asc

Direct Newton iteration for .op point succeeded.

Date: Wed Nov 03 09:40:03 2021
Total elapsed time: 0.047 seconds.

tnom = 27
temp = 27
method = trap
totiter = 3
traniter = 0
tranpoints = 0
accept = 0
rejected = 0
matrix size = 11
fillins = 1
solver = Normal
Matrix Compiler1:      27 opcodes
Matrix Compiler2: 881 bytes object code size
