Circuit: * Z:\home\fabio\Laboratorio_3\Esperienza_02\Circuiti\Circuito4.asc

R50b: both pins shorted together -- ignoring.
Vg: Missing value, assumed 0V @ DC

Date: Thu Nov 04 10:16:25 2021
Total elapsed time: 0.031 seconds.

tnom = 27
temp = 27
method = trap
totiter = 363
traniter = 0
tranpoints = 0
accept = 0
rejected = 0
matrix size = 27
fillins = 16
solver = Normal
Matrix Compiler1: 2.06 KB object code size  0.8/0.5/[0.3]
Matrix Compiler2: 2.40 KB object code size  0.4/0.6/[0.3]

