Circuit: * \\wsl.localhost\Ubuntu-20.04\home\fabiocufino\Laboratorio_3\Esperienza_02\Circuiti\Circuito3_ac_time.asc

Direct Newton iteration for .op point succeeded.

Date: Tue Nov 09 17:51:47 2021
Total elapsed time: 0.097 seconds.

tnom = 27
temp = 27
method = modified trap
totiter = 2086
traniter = 2082
tranpoints = 1042
accept = 1042
rejected = 0
matrix size = 13
fillins = 1
solver = Normal
Matrix Compiler1: 568 bytes object code size  0.4/0.2/[0.0]
Matrix Compiler2: 989 bytes object code size  0.2/0.4/[0.1]

