Circuit: * C:\Users\berto\NotSync\GitHub\Laboratorio_3\Esperienza_02\Circuiti\Circuito4.asc

Vg: Missing value, assumed 0V @ DC

Date: Thu Nov 04 10:13:57 2021
Total elapsed time: 0.067 seconds.

tnom = 27
temp = 27
method = trap
totiter = 367
traniter = 0
tranpoints = 0
accept = 0
rejected = 0
matrix size = 12
fillins = 1
solver = Normal
Matrix Compiler1: 518 bytes object code size  0.6/0.3/[0.1]
Matrix Compiler2: 1002 bytes object code size  0.1/0.1/[0.1]

