Circuit: * C:\Users\berto\NotSync\GitHub\Laboratorio_3\Esperienza_02\Circuiti\Circuito4.asc

Direct Newton iteration for .op point succeeded.

Date: Tue Oct 26 10:10:34 2021
Total elapsed time: 0.073 seconds.

tnom = 27
temp = 27
method = modified trap
totiter = 3695
traniter = 3688
tranpoints = 1796
accept = 1679
rejected = 117
matrix size = 13
fillins = 1
solver = Normal
Matrix Compiler1: 550 bytes object code size  0.2/0.1/[0.1]
Matrix Compiler2: 1.02 KB object code size  0.2/0.2/[0.1]

