Circuit: * Z:\home\fabio\Laboratorio_3\Esperienza_02\Circuiti\Circuito4.asc

Direct Newton iteration for .op point succeeded.

Date: Sat Nov 20 18:26:12 2021
Total elapsed time: 0.037 seconds.

tnom = 27
temp = 27
method = modified trap
totiter = 2271
traniter = 2268
tranpoints = 1135
accept = 1118
rejected = 17
matrix size = 25
fillins = 16
solver = Normal
Matrix Compiler1: 1.55 KB object code size  0.4/0.2/[0.2]
Matrix Compiler2: 2.24 KB object code size  0.3/0.3/[0.2]

