Circuit: * Z:\home\fabio\Laboratorio_3\Esperienza_02\Circuiti\Circuito4.asc

<<<<<<< HEAD
Vg: Missing value, assumed 0V @ DC

Date: Thu Nov 04 10:13:57 2021
Total elapsed time: 0.067 seconds.
=======
R50b: both pins shorted together -- ignoring.
Vg: Missing value, assumed 0V @ DC

<<<<<<< Updated upstream
Date: Thu Nov 04 10:16:25 2021
Total elapsed time: 0.031 seconds.
>>>>>>> main
=======
Date: Fri Nov 05 08:52:28 2021
Total elapsed time: 0.029 seconds.
>>>>>>> Stashed changes

tnom = 27
temp = 27
method = trap
<<<<<<< Updated upstream
<<<<<<< HEAD
totiter = 367
=======
totiter = 363
>>>>>>> main
=======
totiter = 81
>>>>>>> Stashed changes
traniter = 0
tranpoints = 0
accept = 0
rejected = 0
matrix size = 27
fillins = 16
solver = Normal
<<<<<<< Updated upstream
<<<<<<< HEAD
Matrix Compiler1: 518 bytes object code size  0.6/0.3/[0.1]
Matrix Compiler2: 1002 bytes object code size  0.1/0.1/[0.1]
=======
Matrix Compiler1: 2.06 KB object code size  0.8/0.5/[0.3]
Matrix Compiler2: 2.40 KB object code size  0.4/0.6/[0.3]
>>>>>>> main

=======
Matrix Compiler1: 2.06 KB object code size
Matrix Compiler2: 2.40 KB object code size
>>>>>>> Stashed changes
