Circuit: * C:\Users\berto\NotSync\GitHub\Laboratorio_3\Esperienza_02\Circuiti\Circuito3_ac_time.asc

Direct Newton iteration for .op point succeeded.

Date: Wed Oct 27 08:50:32 2021
Total elapsed time: 0.101 seconds.

tnom = 27
temp = 27
method = modified trap
totiter = 4248
traniter = 4244
tranpoints = 2123
accept = 1579
rejected = 544
matrix size = 13
fillins = 1
solver = Normal
Matrix Compiler1: 532 bytes object code size  0.2/0.1/[0.1]
Matrix Compiler2: 1001 bytes object code size  0.1/0.2/[0.1]

