Circuit: * Z:\home\fabio\Laboratorio_3\Esperienza_02\Circuiti\Circuito4_diff.asc

Direct Newton iteration for .op point succeeded.

<<<<<<< Updated upstream
Date: Fri Nov 05 09:11:32 2021
Total elapsed time: 0.091 seconds.
=======
Date: Fri Nov 05 09:45:36 2021
Total elapsed time: 0.052 seconds.
>>>>>>> Stashed changes

tnom = 27
temp = 27
method = modified trap
<<<<<<< Updated upstream
totiter = 2683
traniter = 2676
tranpoints = 1311
accept = 1265
rejected = 46
matrix size = 14
fillins = 1
solver = Normal
Matrix Compiler1: 618 bytes object code size  0.2/0.1/[0.1]
Matrix Compiler2: 1.09 KB object code size  0.1/0.1/[0.1]
=======
totiter = 3963
traniter = 3960
tranpoints = 1974
accept = 1802
rejected = 172
matrix size = 30
fillins = 17
solver = Normal
Matrix Compiler1: 1.82 KB object code size  0.7/0.4/[0.2]
Matrix Compiler2: 2.67 KB object code size  0.4/0.6/[0.3]
>>>>>>> Stashed changes

