Circuit: * C:\Users\berto\NotSync\GitHub\Laboratorio_3\Esperienza_01\Diodo\circuito_3_lab_1.asc

Direct Newton iteration for .op point succeeded.

Date: Wed Oct 27 19:59:25 2021
Total elapsed time: 0.055 seconds.

tnom = 27
temp = 27
method = modified trap
totiter = 2236
traniter = 2224
tranpoints = 1042
accept = 1042
rejected = 0
matrix size = 9
fillins = 0
solver = Normal
Matrix Compiler1: 296 bytes object code size  0.1/0.1/[0.1]
Matrix Compiler2: 567 bytes object code size  0.1/0.1/[0.1]

