Circuit: * C:\Users\berto\NotSync\GitHub\Laboratorio_3\Esperienza_01\Diodo\circuito_3_lab_1.asc

Direct Newton iteration for .op point succeeded.

Date: Tue Oct 26 19:16:42 2021
Total elapsed time: 0.061 seconds.

tnom = 27
temp = 27
method = modified trap
totiter = 2123
traniter = 2119
tranpoints = 1046
accept = 1045
rejected = 1
matrix size = 9
fillins = 1
solver = Normal
Matrix Compiler1: 332 bytes object code size  0.1/0.1/[0.1]
Matrix Compiler2: off  [0.1]/0.1/0.1

