Circuit: * C:\Users\berto\NotSync\GitHub\Laboratorio_3\Esperienza_01\Diodo\circuito_2_lab_1.asc

.OP point found by inspection.

Date: Tue Oct 26 18:56:33 2021
Total elapsed time: 0.093 seconds.

tnom = 27
temp = 27
method = modified trap
totiter = 2082
traniter = 2082
tranpoints = 1042
accept = 1042
rejected = 0
matrix size = 4
fillins = 0
solver = Normal
Matrix Compiler1: 100 bytes object code size  0.1/0.1/[0.1]
Matrix Compiler2: off  [0.1]/0.1/0.1

