Circuit: * Z:\home\fabio\Laboratorio_3\Esperienza_01\Diodo\circuito_3_lab_1.asc

Direct Newton iteration for .op point succeeded.

Date: Fri Oct 29 08:53:20 2021
Total elapsed time: 0.052 seconds.

tnom = 27
temp = 27
method = modified trap
totiter = 2236
traniter = 2224
tranpoints = 1042
accept = 1042
rejected = 0
matrix size = 9
fillins = 0
solver = Normal
Matrix Compiler1: 296 bytes object code size  0.2/0.1/[0.1]
Matrix Compiler2: off  [0.1]/0.1/0.1

