Circuit: * C:\Users\berto\NotSync\GitHub\Laboratorio_3\Esperienza_01\Diodo\circuito_2_lab_1.asc

.OP point found by inspection.

Date: Wed Oct 27 19:21:48 2021
Total elapsed time: 0.083 seconds.

tnom = 27
temp = 27
method = modified trap
totiter = 2082
traniter = 2082
tranpoints = 1042
accept = 1042
rejected = 0
matrix size = 4
fillins = 0
solver = Normal
Matrix Compiler1:       6 opcodes  0.1/[0.0]/0.0
Matrix Compiler2: off  [0.1]/0.1/0.1

