Circuit: * Z:\home\fabio\Laboratorio_3\Diodo\circuito_1_lab_1.asc

Limiting fall time of source v1 to 1.94289e-017
.OP point found by inspection.

Date: Sat Oct 23 12:37:17 2021
Total elapsed time: 0.062 seconds.

tnom = 27
temp = 27
method = modified trap
totiter = 2173
traniter = 2173
tranpoints = 1080
accept = 1070
rejected = 10
matrix size = 4
fillins = 0
solver = Normal
Matrix Compiler1: 100 bytes object code size  0.2/0.1/[0.1]
Matrix Compiler2: 248 bytes object code size  0.1/0.2/[0.1]

